opendss_models/generated/ieee33.dss
! Generated by DNR for IEEE 33-node distribution test system
Clear
New Circuit.ieee33 bus1=1 basekv=12.66 pu=1.0 phases=3

New Line.L1 phases=3 bus1=1 bus2=2 r1=0.0922 x1=0.0407 r0=0.2766 x0=0.1221 c1=0 c0=0 length=1 units=km
New Line.L2 phases=3 bus1=2 bus2=3 r1=0.493 x1=0.2511 r0=1.479 x0=0.7533 c1=0 c0=0 length=1 units=km
New Line.L3 phases=3 bus1=3 bus2=4 r1=0.366 x1=0.1864 r0=1.098 x0=0.5592 c1=0 c0=0 length=1 units=km
New Line.L4 phases=3 bus1=4 bus2=5 r1=0.3811 x1=0.1941 r0=1.1433 x0=0.5823 c1=0 c0=0 length=1 units=km
New Line.L5 phases=3 bus1=5 bus2=6 r1=0.819 x1=0.707 r0=2.457 x0=2.121 c1=0 c0=0 length=1 units=km
New Line.L6 phases=3 bus1=6 bus2=7 r1=0.1872 x1=0.6188 r0=0.5616 x0=1.8564 c1=0 c0=0 length=1 units=km
New Line.L7 phases=3 bus1=7 bus2=8 r1=0.7114 x1=0.2351 r0=2.1342 x0=0.7053 c1=0 c0=0 length=1 units=km
New Line.L8 phases=3 bus1=8 bus2=9 r1=1.03 x1=0.74 r0=3.09 x0=2.22 c1=0 c0=0 length=1 units=km
New Line.L9 phases=3 bus1=9 bus2=10 r1=1.044 x1=0.74 r0=3.132 x0=2.22 c1=0 c0=0 length=1 units=km
New Line.L10 phases=3 bus1=10 bus2=11 r1=0.1966 x1=0.065 r0=0.5898 x0=0.195 c1=0 c0=0 length=1 units=km
New Line.L11 phases=3 bus1=11 bus2=12 r1=0.3744 x1=0.1238 r0=1.1232 x0=0.3714 c1=0 c0=0 length=1 units=km
New Line.L12 phases=3 bus1=12 bus2=13 r1=1.468 x1=1.15 r0=4.404 x0=3.45 c1=0 c0=0 length=1 units=km
New Line.L13 phases=3 bus1=13 bus2=14 r1=0.5416 x1=0.7129 r0=1.6248 x0=2.1387 c1=0 c0=0 length=1 units=km
New Line.L14 phases=3 bus1=14 bus2=15 r1=0.591 x1=0.562 r0=1.773 x0=1.686 c1=0 c0=0 length=1 units=km
New Line.L15 phases=3 bus1=15 bus2=16 r1=0.7463 x1=0.545 r0=2.2389 x0=1.635 c1=0 c0=0 length=1 units=km
New Line.L16 phases=3 bus1=16 bus2=17 r1=1.289 x1=1.721 r0=3.867 x0=5.163 c1=0 c0=0 length=1 units=km
New Line.L17 phases=3 bus1=17 bus2=18 r1=0.732 x1=0.574 r0=2.196 x0=1.722 c1=0 c0=0 length=1 units=km
New Line.L18 phases=3 bus1=2 bus2=19 r1=0.164 x1=0.1565 r0=0.492 x0=0.4695 c1=0 c0=0 length=1 units=km
New Line.L19 phases=3 bus1=19 bus2=20 r1=1.5042 x1=1.3554 r0=4.5126 x0=4.0662 c1=0 c0=0 length=1 units=km
New Line.L20 phases=3 bus1=20 bus2=21 r1=0.4095 x1=0.4784 r0=1.2285 x0=1.4352 c1=0 c0=0 length=1 units=km
New Line.L21 phases=3 bus1=21 bus2=22 r1=0.7089 x1=0.9373 r0=2.1267 x0=2.8119 c1=0 c0=0 length=1 units=km
New Line.L22 phases=3 bus1=3 bus2=23 r1=0.4512 x1=0.3083 r0=1.3536 x0=0.9249 c1=0 c0=0 length=1 units=km
New Line.L23 phases=3 bus1=23 bus2=24 r1=0.898 x1=0.7091 r0=2.694 x0=2.1273 c1=0 c0=0 length=1 units=km
New Line.L24 phases=3 bus1=24 bus2=25 r1=0.896 x1=0.7011 r0=2.688 x0=2.1033 c1=0 c0=0 length=1 units=km
New Line.L25 phases=3 bus1=6 bus2=26 r1=0.203 x1=0.1034 r0=0.609 x0=0.3102 c1=0 c0=0 length=1 units=km
New Line.L26 phases=3 bus1=26 bus2=27 r1=0.2842 x1=0.1447 r0=0.8526 x0=0.4341 c1=0 c0=0 length=1 units=km
New Line.L27 phases=3 bus1=27 bus2=28 r1=1.059 x1=0.9337 r0=3.177 x0=2.8011 c1=0 c0=0 length=1 units=km
New Line.L28 phases=3 bus1=28 bus2=29 r1=0.8042 x1=0.7006 r0=2.4126 x0=2.1018 c1=0 c0=0 length=1 units=km
New Line.L29 phases=3 bus1=29 bus2=30 r1=0.5075 x1=0.2585 r0=1.5225 x0=0.7755 c1=0 c0=0 length=1 units=km
New Line.L30 phases=3 bus1=30 bus2=31 r1=0.9744 x1=1.1556 r0=2.9232 x0=3.4668 c1=0 c0=0 length=1 units=km
New Line.L31 phases=3 bus1=31 bus2=32 r1=0.3105 x1=0.3619 r0=0.9315 x0=1.0857 c1=0 c0=0 length=1 units=km
New Line.L32 phases=3 bus1=32 bus2=33 r1=0.341 x1=0.5302 r0=1.023 x0=1.5906 c1=0 c0=0 length=1 units=km
New Line.L33 phases=3 bus1=21 bus2=8 r1=2 x1=2 r0=6 x0=6 c1=0 c0=0 length=1 units=km
New Line.L34 phases=3 bus1=9 bus2=15 r1=2 x1=2 r0=6 x0=6 c1=0 c0=0 length=1 units=km
New Line.L35 phases=3 bus1=12 bus2=22 r1=2 x1=2 r0=6 x0=6 c1=0 c0=0 length=1 units=km
New Line.L36 phases=3 bus1=18 bus2=33 r1=2 x1=2 r0=6 x0=6 c1=0 c0=0 length=1 units=km
New Line.L37 phases=3 bus1=25 bus2=29 r1=0.5 x1=2 r0=1.5 x0=6 c1=0 c0=0 length=1 units=km

New Load.Load2 bus1=2 phases=3 conn=wye kv=12.66 kw=100 kvar=60 model=1
New Load.Load3 bus1=3 phases=3 conn=wye kv=12.66 kw=90 kvar=40 model=1
New Load.Load4 bus1=4 phases=3 conn=wye kv=12.66 kw=120 kvar=80 model=1
New Load.Load5 bus1=5 phases=3 conn=wye kv=12.66 kw=60 kvar=30 model=1
New Load.Load6 bus1=6 phases=3 conn=wye kv=12.66 kw=60 kvar=20 model=1
New Load.Load7 bus1=7 phases=3 conn=wye kv=12.66 kw=200 kvar=100 model=1
New Load.Load8 bus1=8 phases=3 conn=wye kv=12.66 kw=200 kvar=100 model=1
New Load.Load9 bus1=9 phases=3 conn=wye kv=12.66 kw=60 kvar=20 model=1
New Load.Load10 bus1=10 phases=3 conn=wye kv=12.66 kw=60 kvar=20 model=1
New Load.Load11 bus1=11 phases=3 conn=wye kv=12.66 kw=45 kvar=30 model=1
New Load.Load12 bus1=12 phases=3 conn=wye kv=12.66 kw=60 kvar=35 model=1
New Load.Load13 bus1=13 phases=3 conn=wye kv=12.66 kw=60 kvar=35 model=1
New Load.Load14 bus1=14 phases=3 conn=wye kv=12.66 kw=120 kvar=80 model=1
New Load.Load15 bus1=15 phases=3 conn=wye kv=12.66 kw=60 kvar=10 model=1
New Load.Load16 bus1=16 phases=3 conn=wye kv=12.66 kw=60 kvar=20 model=1
New Load.Load17 bus1=17 phases=3 conn=wye kv=12.66 kw=60 kvar=20 model=1
New Load.Load18 bus1=18 phases=3 conn=wye kv=12.66 kw=90 kvar=40 model=1
New Load.Load19 bus1=19 phases=3 conn=wye kv=12.66 kw=90 kvar=40 model=1
New Load.Load20 bus1=20 phases=3 conn=wye kv=12.66 kw=90 kvar=40 model=1
New Load.Load21 bus1=21 phases=3 conn=wye kv=12.66 kw=90 kvar=40 model=1
New Load.Load22 bus1=22 phases=3 conn=wye kv=12.66 kw=90 kvar=40 model=1
New Load.Load23 bus1=23 phases=3 conn=wye kv=12.66 kw=90 kvar=50 model=1
New Load.Load24 bus1=24 phases=3 conn=wye kv=12.66 kw=420 kvar=200 model=1
New Load.Load25 bus1=25 phases=3 conn=wye kv=12.66 kw=420 kvar=200 model=1
New Load.Load26 bus1=26 phases=3 conn=wye kv=12.66 kw=60 kvar=25 model=1
New Load.Load27 bus1=27 phases=3 conn=wye kv=12.66 kw=60 kvar=25 model=1
New Load.Load28 bus1=28 phases=3 conn=wye kv=12.66 kw=60 kvar=20 model=1
New Load.Load29 bus1=29 phases=3 conn=wye kv=12.66 kw=120 kvar=70 model=1
New Load.Load30 bus1=30 phases=3 conn=wye kv=12.66 kw=200 kvar=600 model=1
New Load.Load31 bus1=31 phases=3 conn=wye kv=12.66 kw=150 kvar=70 model=1
New Load.Load32 bus1=32 phases=3 conn=wye kv=12.66 kw=210 kvar=100 model=1
New Load.Load33 bus1=33 phases=3 conn=wye kv=12.66 kw=60 kvar=40 model=1

Set VoltageBases=[12.66]
CalcVoltageBases
Set MaxIterations=100
